<?xml version="1.0" encoding="UTF-8"?>

<!-- generated on Mon Feb 15 19:14:07 2021 by Eclipse SUMO duarouter Version 1.8.0
<configuration xmlns:xsi="http://www.w3.org/2001/XMLSchema-instance" xsi:noNamespaceSchemaLocation="http://sumo.dlr.de/xsd/duarouterConfiguration.xsd">

    <input>
        <net-file value="osm.net.xml"/>
        <route-files value="trips.trips.xml"/>
    </input>

    <output>
        <output-file value="sampleRoutes.rou.xml"/>
        <alternatives-output value="sampleRoutes.rou.alt.xml"/>
    </output>

    <time>
        <begin value="0"/>
        <end value="3600"/>
    </time>

    <report>
        <no-warnings value="true"/>
        <ignore-errors value="true"/>
        <no-step-log value="true"/>
    </report>

</configuration>
-->

<routes xmlns:xsi="http://www.w3.org/2001/XMLSchema-instance" xsi:noNamespaceSchemaLocation="http://sumo.dlr.de/xsd/routes_file.xsd">
    <vehicle id="0" depart="0.00">
        <route edges="255326881 206233778 255326869#0 255326869#2 225372493 77122421#0 77122421#2 22805377 108784139 295539962 25948331 516863395#0 516863395#1 258194205 150398308 456934817 184156805 150398305 8611964 184156816 184156815 5466445#0 5475488#1 360787852#0 360787852#2 360787852#3 150393273#0 150393273#1 150393273#3 121805095 32280972#3 121805105#0 121805105#1 -150393270#12 -150393270#11 -150393270#10 -150393270#9 -150393270#8 -150393270#7 -150393270#6 150393272#0 150393272#1 -150393272#1"/>
    </vehicle>
    <vehicle id="2" depart="2.00">
        <route edges="31113576#2 405312618 222091486 184516612#0 184516612#1 184516613#0 31113577#0 31113577#1 258979175 222091656 394303471#0 394303471#1 222091655#0 222091655#1 152410045#0 283999329 283999571 267411694 267411696#2 267411696#3 267411695 360072943#0 360072943#1 258979231#0 258979231#1 144932611 144932612 252753975#1 181335262 293281410#0 258979178#1 251066998 251066997#0 101617775#0 101617775#1 101617775#2 5182256 24909171 251065565 23263248#1 183654500#0 183654500#1 183413425 235390974 235391021 235391020#0 235391020#1 235391022 396381365 235389907 235389906 235389908#0 269001612#2"/>
    </vehicle>
    <vehicle id="3" depart="3.00">
        <route edges="4434089#3 -4434089#3 -4434089#2 -4434089#1 -4434089#0 204526318#1 204526318#2 204526318#3 204526318#5 204526318#6 204526318#7 204526316#0 204526316#1 204526316#2 397035969 22026968#0 22026968#1 22026968#3 258979175 222091656 202105825#1 -21912603 32673383 -21912998#3 -21912998#2 -21912998#1 -21912998#0"/>
    </vehicle>
    <vehicle id="4" depart="4.00">
        <route edges="171506607#0 171506607#1 171506608#0 171506608#1 252753975#1 181335262 293281410#0 144916662 181336164#0 181336164#1 181336164#2 181336164#3 181336164#4 181336164#5 181336164#6 181336164#7 78489606 178235948#0 178235948#1 178235035 178226533#0 178226496 301704185#0 178229025#5 204207291 5097799 4235242#0 164086589 164086593 45085542#0 268931673#1 270655631 270655638 711528929#0 360248211#0 360248211#1 360248211#2 360248211#3 360248211#4 28874733#0 29065540#0 -150554195#2"/>
    </vehicle>
    <vehicle id="5" depart="5.00">
        <route edges="-43578399#0 43578399#0 43578399#1 150556234#1 165823636 227062816 165828294#0 581663849 360248203#1 360248191 360248194 360248197#0 360248197#1 360248209#1 268931670 268931671 4235244 204207303#0 164095588#2 204207294 45085545 5097800 4181088 204207292 178229025#5 204207291"/>
    </vehicle>
    <vehicle id="6" depart="6.00">
        <route edges="-150393273#3 -150393273#1 -150393273#0 -360787852#3 -360787852#2 -360787852#0 -5475488#1 23137790#2 150543795 56186952#0 56186952#1 35134167#0 35134167#2 35134167#3 276412885 276412658 189877634#0 96747828#0 96747828#1 56185651#3 251161934#0 226991208#0 228126461#1 462537200#1 249375697#1 433018231 433018232 269040901#0 269040901#1 189772874#0 190451409 269040904 150770619#1 150770619#4 24725160#0 24725160#1 149888267 -282331232#1 -282331232#0 -366073486 -230602997#2 -230602997#1 -230602997#0 -366073490#3 -366073490#2 -366073490#1 -366073490#0 -366073489#2 -366073489#1 -366073489#0 -40521205#0 -431557291 -40521208#1 -431557293 -366073487"/>
    </vehicle>
    <vehicle id="7" depart="7.00">
        <route edges="25873469#7 25873469#8 25873469#9 251162032#0 226991208#0 287186149#1 251161865#1 781419324 404599852 404599853 251157594 404477284#1 43578399#0 43578399#1 150556234#1 165823636 227062816 165828294#0 150554195#2 150554195#3 258979269#1 227062820#0 227062820#1"/>
    </vehicle>
    <vehicle id="8" depart="8.00">
        <route edges="-436584038#2 436584038#2 436584038#3 436584038#4 436584038#5 267411696#2 267411696#3 267411695 360072943#0 360072943#1 258979231#0 258979231#1 144932611 144932612 252753975#1 181335262 293281410#0 258979178#1 251066998 251066997#0 101617775#0 101617775#1 101617775#2 5182256 24909171 251065565 176570669#1 185573957#0 150663777 -319999605#7 -319999605#6 -319999605#5 -319999605#4 -319999605#1 -319999605#0 -185352101 -163419466#7 -163419466#4 -163419466#3 -24608208#1 -24608208#0 208426933#2 -24549661#1 24549661#1"/>
    </vehicle>
    <vehicle id="9" depart="9.00">
        <route edges="366073490#2 366073490#3 230602997#0 230602997#1 230602997#2 366073486 282331232#0 282331232#1 149888264#1 203461111 203461112#1 230602993 190438083#0 190438083#1 269040907#0 269040907#1 149899941 253488977#0 42760138 187060052 149904354 218778912 268931658 42760136 268931654#1 42760135#0 42760135#2 42760135#3 880134845 305869959#1 4084169 53040717 323709010 323709011#0 323709011#2 323709012#0 323709012#1 25876774 25876775#0 25876775#1 181337671#0 280873233 181337547 181336338 396385838 181337215 188324464 102526743#0 102526743#2 144934063 144932088#0 152412638#0 152412638#1 171569487 181332523#0 181332523#1 181332523#2 181332526 426912948#0 426912948#1 426912948#2 426912948#5 426452841#0 -18314022#4 -18314022#3 -18314022#2 -18314022#1 -18314022#0 -436584061#1 -436584061#0 -125927750#6 -125927750#5 -125927750#4"/>
    </vehicle>
    <vehicle id="10" depart="10.00">
        <route edges="366073468#1 366073469#1 366073484#1 366073475#1 38152916#1 38152916#2 24620443 404190177 404190176 8067184#0 150837582#1 150837582#2 150837582#3 185579896#0 185579896#1 53175059#1 53175059#2 187061084 93785463#0 93785463#1 190458990#0 190458990#2 151788685 269017597#0 269017597#1 269017597#2 269017597#3 269017597#4 269017597#5 269017597#6 190458063 190458064#2 190458064#3 190458064#4 190458064#5 57381284 4391007#0 175344381#0 175344381#1 175344381#2 35099540#0 35099540#1 27288175#0"/>
    </vehicle>
    <vehicle id="11" depart="11.00">
        <route edges="150393270#1 150393270#2 150393270#3 150393270#4 150393270#5 150393270#6 150393270#7 150393270#8 150393270#9 150393270#10 150393270#11 150393270#12 121805107#0 121805107#1 121805107#2 32280972#5 38141820 121805098#2 371574650 -371573874 -371573875 -360788356 184227241#4 292947985 150395822 25589596 27134171 14189055 5111817 26408353 114976950 74539230#0 74539230#1 225198733#0 251327592#1 77122439#0 77122439#1 480590963#0 480590963#1 480590961 480590958 480590956 77122422#1 77122422#2 480590954 -749288423#0 -749288422 -28560402#2"/>
    </vehicle>
    <vehicle id="12" depart="12.00">
        <route edges="692648168#3 692648168#4 268931655#0 183629216#0 204207294 150549933#0 164086589 164086593 45085542#0 268931673#1 270655631 270655638 220911179 189899976 561882213#0 561882213#1 320185059 190022224#1 115738329#0 29350090 320202776 150546874#1 320210276 320210275 320221191 56185655#0 56185655#1 189776524 56454445 187057791#0 187057791#1 187057791#2 5475488#1 360787852#0 360787852#2 360787852#3 -38139887#1 -150393269#3 -150393269#2 -150393269#0 150393269#0 150393269#2"/>
    </vehicle>
    <vehicle id="13" depart="13.00">
        <route edges="-22331296#2 -22331296#1 -22331296#0 -436584039#4 -436584039#3 -436584039#2 -436584039#1 -436584039#0 -804610969 360072943#0 360072943#1 394303479 152412640#0 152412640#1 171506737#0 171506737#1 -171503239#1 -171503239#0 171503238 461562478#1 426912946#0 426912946#1 152406542 181332367#0 123557418 190061812#0 190061812#1 190061812#2 190061812#3 190061812#4 204526312#1 204526312#2 204526312#3 23090540#1 23090540#3 -23090540#3"/>
    </vehicle>
    <vehicle id="14" depart="14.00">
        <route edges="4235242#0 164086589 164085721#0 164085721#2 164085721#3 164085721#4 164085721#5 204207303#0 164095588#2 305325048#0 305325046 305325049#0 305325049#1 305325049#2 236994807 5073592#0 5073592#2 5073592#3 5073592#4 5073592#5 14103491#0 251987384#0 251987384#1 251987384#2 251987384#3 269001615#1 235391298 237023442#0 269001613#0 269001613#1 176570669#1 185573957#0 150663777 -319999605#7 -319999605#6 -319999605#5 -319999605#4 -319999605#1 -319999605#0 -185352101 -163419466#7 -163419466#4 -163419466#3 -24608208#1 -24608208#0 24608208#0"/>
    </vehicle>
    <vehicle id="15" depart="15.00">
        <route edges="366073486 282331232#0 282331232#1 149888264#1 203461111 -238870176#3 -238870176#2 -238870176#0 -205190519 23567307 269040918 251106111#0 189032454 269040914 385970249#2 385970249#3 305792174#2"/>
    </vehicle>
    <vehicle id="16" depart="16.00">
        <route edges="223096053#0 -223096053#0 189575384#6 189575384#7 189575384#8 189575384#9 181334581#1 181334581#2 181334581#3 181334581#4 181336002#0 258979178#1 251066998 251066997#0 101617775#0 101617775#1 101617775#2 5182256 24909171 251065565 176570669#1 185573957#0 150663777 -319999605#7 -319999605#6 -319999605#5 -319999605#4 -319999605#1 -319999605#0 8067182#2 389119564#1 183656812 779043553#1 779043553#2"/>
    </vehicle>
    <vehicle id="17" depart="17.00">
        <route edges="151493314#0 151493314#1 151493314#2 -383597641#4 -383597641#3 -383597641#2 -383597641#0 -426452841#0 -426912948#5 -426912948#2 -426912948#1 -426912948#0 -181332526 -181332523#2 -181332523#1 -181332523#0 -171569487 -152412638#1 -152412638#0 80587514 171506608#0 171506608#1 252753975#1 181335262 293281410#0 258979178#1 251066998 251066997#0 101617775#0 101617775#1 101617775#2 5182256 24909171 251065565 176570669#1 185573957#0 150663777 185573958 237278283 237278282#3 268931664#1 268931665 147683978#0 4084166 268931652 190347317#0 187060053#0 42760134 187060055 53175058 315426058#1 315426061 315426063 315426062 150000852 150556226 404599856 255225031#3 404599855#1 404599857#0 404599857#1 404599857#2 23055466#0 23055466#1 23055466#3"/>
    </vehicle>
    <vehicle id="18" depart="18.00">
        <route edges="387015289#1 165849627#5 165849627#6 165849627#7 165849627#8 165849627#9 376865290#0 376865290#1 300034825 472148300 867790499#1 253488980 253488984 149899046 204400292 251109201"/>
    </vehicle>
    <vehicle id="19" depart="19.00">
        <route edges="433018233#1 433018233#2 23566450 23566451#0 23566451#1 335986848#1 335986848#2 230991290#0 230991290#1 230991289 251158322#0 548514765 228126460#0 316778911#0 287186149#1 251161865#1 781419324 404599852 404599853 251157594 548514764#2 548514763#0 189876499 160173625 360785921#0 360785921#1 5111851 360785920#0 190340308 399741814#0 399741814#1 190340307 399741671 190340312 216879571 674280493 102774826 102749569 17977132 359947001 24388979"/>
    </vehicle>
    <vehicle id="20" depart="20.00">
        <route edges="27852098#0 27852098#2 27852098#3 204526315#0 204526315#1 204526315#2 202133575 -204526318#7 -204526318#6 -204526318#5 -204526318#3 -204526318#2 -204526318#1 4434089#0 4434089#1 4434089#2 4434089#3 4434089#4 -27191681#2 -152924684"/>
    </vehicle>
    <vehicle id="21" depart="21.00">
        <route edges="-443340950#1 -443340950#0 129735587#1 129735587#2 -53040714 -35099540#2 -35099540#1 -35099540#0 35099432#0 35099432#2 4084172 114389127#1 114389127#2 114389127#3 114389127#4 377905808#0 377905808#2 377905809#2 377905809#3 377905809#4 269017600#0 269017600#1 163440758 42760868 163443100#0 163443100#1 269017594 95170298 191640848#0 191640848#1 53175060#0 53175060#1 53175060#2 724854350#0 724854350#1 95170291#0 95170291#1 95170291#3 95170291#4 253488954#0 53175163#1 253488943 253488947 253488948 253488950#0 112562464 46967473 502060953#0 502060953#1 182065983#1 53175058 315426058#1 315426061 315426063 315426062 150000852 150556226 404599856 255225031#3 404599855#1 404599857#0 404599857#1 404599857#2 387015293#0 387015293#1 387015293#2 387015293#3 107085661"/>
    </vehicle>
    <vehicle id="23" depart="23.00">
        <route edges="-238870176#3 238870176#3 203461112#1 230602993 190438083#0 190438083#1 269040907#0 269040907#1 149899941 253488977#0 42760138 187060052 149904354 218778912 268931658 42760136 268931654#1 42760135#0 42760135#2 42760135#3 880134845 305869959#1 4084169 53040717 323709010 323709011#0 323709011#2 323709012#0 323709012#1 25876774 25876775#0 25876775#1 181337671#0 280873233 181337547 181336338 396385838 181337215 188324464 102526743#0"/>
    </vehicle>
    <vehicle id="24" depart="24.00">
        <route edges="253546370#2 24599109 -25548343#4 -25548343#3 -25548343#2 -25548343#1 178235948#1 178235035 173057394 202145279#0 301704201#0 301704201#1 301704201#2 251071274 251071273#0 251071273#1 251071273#2 280873237#1 280873237#2 280873237#3 164767639#0 164767639#1 101617775#1 101617775#2 5182256 24909171 251065565 176570669#1 185573957#0 150663777 -319999605#7 -319999605#6 -319999605#5 -319999605#4 4432614#0 150694624#2"/>
    </vehicle>
    <vehicle id="25" depart="25.00">
        <route edges="150697174#0 -150697174#0 -366073486 24666916 366073460#1 366073459#0 189032454 269040914 385970249#2 -385970249#2"/>
    </vehicle>
    <vehicle id="26" depart="26.00">
        <route edges="-77122433 791260171 -870453326 -28560406#1 -28560406#0 -229460712#1 -229460712#0 25948331 516863395#0 516863395#1 258194205 150398308 456934817 150400306#0 150400306#1 388155256 25873469#0 25873469#1 25873469#6 25873469#7 25873469#8 25873469#9 251162032#0 226991208#0 228126461#1 462537200#1 548514765"/>
    </vehicle>
    <vehicle id="27" depart="27.00">
        <route edges="25851182#2 -25851182#2 -25851182#1 -25851182#0 -190053109#3 -190053109#2 -190053109#0 -383597641#7 -383597641#5 -383597641#4 -383597641#3 -383597641#2 -383597641#0 -426452841#0 -426912948#5 -426912948#2 -426912948#1 -426912948#0 -181332526 -181332523#2 -181332523#1 -181332523#0 -171569487 -152412638#1 -152412638#0 80587514 171506608#0 171506608#1 252753975#1 181335262 293281410#0 258979178#1 251066998 251066997#0 101617775#0 101617775#1 101617775#2 5182256 24909171 251065565 176570669#1 185573957#0 150663777 185573958 237278283 237278282#3 268931664#1 268931665 147683978#0 4084166 268931652 190347317#0 187060053#0 42760134 187060055 53175058 315426058#1 315426061 315426063 315426062 150000852 150000376#2 189773010#0 189773010#1 149996793 190451914#1 251106575 251106198#0 251106198#2 23567307 269040918 251106111#0 189032454 269040914 269040916 190446522#0 35948952#0 -33083418#2 24916962#0 24916962#1"/>
    </vehicle>
    <vehicle id="28" depart="28.00">
        <route edges="-315906361#8 -315906361#7 -315906361#6 -315906361#5 -315906361#4 -315906361#3 -315906361#2 -315906361#1 -315906361#0 -518809865#1 -518809865#0 43793038#1 360072943#0 360072943#1 258979231#0 258979231#1 144932611 144932612 252753975#1 181335262 293281410#0 144916662 181336164#0 181336164#1 181336164#2 181336164#3 181336164#4 181336164#5 181336164#6 181336164#7 78489606 178235948#0 178235948#1 178235035 178226533#0 178226651#1 305390361#2"/>
    </vehicle>
    <vehicle id="29" depart="29.00">
        <route edges="-305390361#3 -305390361#2 150671086 -25548343#1 178235948#1 178235035 173057394 202145279#0 301704201#0 301704201#1 301704201#2 251071274 251071273#0 251071273#1 251071273#2 280873237#1 280873237#2 280873237#3 164767639#0 164767639#1 101617775#1 101617775#2 5182256 24909171 251065565 176570669#1 185573957#0 150663777 -319999605#7 -319999605#6 -319999605#5 -319999605#4 -319999605#1 -319999605#0 -185352101 -163419466#7 -163419466#4 -163419466#3 -163419466#1 -163419466#0 69852238 269017612 269017614 269017617#0 269017617#2 163440755#0 163440755#1 163440755#2 151788685"/>
    </vehicle>
    <vehicle id="30" depart="30.00">
        <route edges="880134845 237278282#3 268931664#1 268931665 147683978#0 4084166 268931652 190347317#0 187060053#0 42760134 187060055 246584302#0 246584302#2 500582850 500582851#1 255389622#0 255389622#3 255389622#4 255389622#5 255389622#6 255389622#8 255389622#9 255389621#0 255389621#1"/>
    </vehicle>
    <vehicle id="31" depart="31.00">
        <route edges="230991290#1 269040901#0 269040901#1 189772874#0 190451409 269040904 230602993 190438083#0 190438083#1 269040907#0 269040907#1 204400292 251109201 187060050#2 781345962 300035524 150857432#2 93785423 253488957#0 94586305 500261498 94586298 500261497 150837582#1 150837582#2 150837582#3 185579896#0 185579896#1 53175059#1 53175059#2 187061084 93785463#0 93785463#1 190458990#0 190458990#2 151788685 269017597#0 269017597#1 269017597#2 269017597#3 269017597#4 269017597#5 269017597#6 190458063 377905808#0 377905808#2 377905809#2 377905809#3 377905809#4 269017600#0 269017600#1"/>
    </vehicle>
    <vehicle id="32" depart="32.00">
        <route edges="405312618 222091486 184516612#0 184516612#1 184516613#0 31113577#0 31113577#1 258979175 222091656 394303471#0 394303471#1 222091655#0 222091655#1 152410045#0 283999329 283999571 267411694 267411696#2 267411696#3 267411695 360072943#0 360072943#1 258979231#0 258979231#1 144932611 144932612 252753975#1 181335262 293281410#0 144916662 181336164#0 181336164#1 181336164#2 181336164#3 181336164#4 181336164#5 181336164#6 181336164#7 78489606 178235948#0 178235948#1 178235035 178226533#0 178226496 301704185#0 178229025#5 204207291 5097799 4235242#0 164086589 164086593 45085542#0 268931673#1 270655631 270655638 220911179 189899976 561882213#0 561882213#1 320185059 190022224#1 115738329#0 29350090 320202776 150546874#1 320210276 320210275 320221191 56185655#0 56185655#1 189776524 56454445 187057791#0 187057791#1 187057791#2 23137790#2 150543795 56186952#0 56186952#1 35134167#0 35134167#2 35134167#3"/>
    </vehicle>
    <vehicle id="33" depart="33.00">
        <route edges="-443341031#0 -253537649 -446545499 -352934646#1 -352934646#0 -4777318 -35099540#0 35099432#0 35099432#2 4084172 114389127#1 114389127#2 114389127#3 114389127#4 377905808#0 377905808#2 377905809#2 377905809#3 377905809#4 269017600#0 269017600#1 163419805#0 163419805#1 163419805#2 163419466#0 163419466#1 163419466#3 163419466#4 163419466#7 185352101 150697171#1 319999605#1 319999605#4 -364080661 -150694624#0"/>
    </vehicle>
    <vehicle id="34" depart="34.00">
        <route edges="127607225#5 23567306#0 23567306#1 23567306#2 269040899 9040997 251158323 251158324#1 251158322#0 548514765 228126460#0 316778911#0 287186149#1 251161865#1 781419324 404599852 404599853 251157594 548514764#2 548514763#0 189876499 160173625 360785921#0 360785921#1 23137784 25589596 27134171 14189055 5111817 26408353 48278503#0 48278503#2 14189058#0 220914101 -523413289#1 84176718#0 -84176718#0"/>
    </vehicle>
    <vehicle id="35" depart="35.00">
        <route edges="-383597641#7 -383597641#5 -383597641#4 -383597641#3 -383597641#2 -383597641#0 -426452841#0 -426912948#5 -426912948#2 -426912948#1 -426912948#0 -181332526 -181332523#2 -181332523#1 -181332523#0 -171569487 -152412638#1 -152412638#0 80587514 171506608#0 171506608#1 252753975#1 181335262 293281410#0 144916662 181336164#0 181336164#1 181336164#2 181336164#3 181336164#4 181336164#5 181336164#6 181336164#7 78489606 178235948#0 178235948#1 178235035 178226533#0 178226496 305379130#0 204207308 305325054#2 152378956#0 152378956#1 152378956#2 152378956#3 152378956#4 152378956#5 204207290#0 204207290#1 204207290#4 267411640#0 267411640#2 178205026 -598189702#1 -178206109#0 -778957164#1 -778957164#0 -520753136#1 -564962290#1 -564962290#0 564962290#0"/>
    </vehicle>
    <vehicle id="36" depart="36.00">
        <route edges="4403852#4 -150556231#3 -150556231#2 -150556231#1 -150556231#0 4432606#5 626581541#0 626581541#1 178843541 268931682#0 268931659#0 4084166 268931652 42760136 268931654#1 42760135#0 42760135#2 42760135#3 880134845 305869959#1 4084169 53040717 323709010 791700779 134394171#3"/>
    </vehicle>
    <vehicle id="37" depart="37.00">
        <route edges="258979254#2 -150554195#3 -150554195#2 -150554195#1 97301292#1 360248182#0 360248182#2 165823635 626345991 97301277#0 189877848 96747828#0 96747828#1 56185651#3 251161934#0 226991208#0 228126461#1 462537200#1 249375697#1 433018231 433018232 269040901#0 269040901#1 189772874#0 190451409 269040904 230602993 190438083#0 190438083#1 269040907#0 269040907#1 204400292 251109201 187060050#2 781345962 300035524 150857432#2 93785423 253488957#0 94586305 500261498 94586298 500261497 150837582#1 150837582#2 150837582#3 185579896#0 185579896#1 53175059#1 53175059#2 187061084 93785463#0 93785463#1 190458990#0 190458990#2 151788685 269017597#0 269017597#1 269017597#2 269017597#3 269017597#4 269017597#5 269017597#6 190458063 190458064#2 190458064#3 190458064#4 190458064#5 57381284 4391007#0 175344381#0 175344381#1 175344381#2 35099540#0 35099540#1 35099540#2 53040714 -129735587#2 -129735587#1 -129735587#0 -156465714#0 156465714#0"/>
    </vehicle>
    <vehicle id="38" depart="38.00">
        <route edges="502060953#0 502060953#1 182065983#1 218778912 268931658 42760136 268931654#1 42760135#0 42760135#2 42760135#3 880134845 305869959#1 4084169 53040717 323709010 791700779 134394675#0 134394675#1 134394675#2 134394675#3 -150695577#2 -150695577#1 442749533 183654631"/>
    </vehicle>
    <vehicle id="39" depart="39.00">
        <route edges="-74153950 74046358 28462311#0 480583011#1 286708821 480583010#0 286708819 127170001#0 127170001#1 127170001#2 74539230#0 74539230#1 225198733#0 251327592#1 77122439#0 77122439#1 -77122446#3 -77122446#2 -77122446#1 -77122446#0 -30163590#4 -30163590#3 -30163590#2 -30163590#1 -30163590#0 -625333807#1 -625333807#0 -50916530#4 -50916530#3 -50916530#2 -50916530#1 -50916530#0 -870453325 -50919061#3 -50919061#2 -50919061#1 -50919061#0 -229460712#1 -229460712#0 25948331 516863395#0 516863395#1 258194205 150398308 456934817 150400306#0 150400306#1 388155256 25873469#0 25873469#1 25873469#6 25873469#7 25873469#8 25873469#9 251162032#0 226991208#0 228126461#1 462537200#1 249375697#1 433018231 433018232 269040901#0 269040901#1 189772874#0 190451409 269040904 230602993 190438083#0 190438083#1 269040907#0 269040907#1 204400292 251109201 187060050#2 781345962 300035524 150857432#2 93785423 253488957#0 94586305 500261498 94586298 500261497 150837582#1 150837582#2 150837582#3 185579896#0 185579896#1 95170297#0 53175060#0 53175060#1 24549659 97142258 53175159#9 53175159#10 53175159#11 -53175159#11"/>
    </vehicle>
    <vehicle id="40" depart="40.00">
        <route edges="23137793#6 181503326#0 181503326#1 255392314 255392313#0 387015286 409702806#1 438279356 179527904#1 150554190#0 150554190#1 150554190#2 165825314#2 165825314#3 165825311#0 165825311#1 165825311#2 190340308 399741814#0 399741814#1 190340307 399741671 471554672 184227241#0 184227241#1 184227241#2 184227241#4 292947985 150395822 25589596 27134171 14189055 5111817 26408353 114976950 74539230#0 74539230#1 225198733#0 251327592#1 77122439#0 77122439#1 480590963#0 480590963#1 480590961 480590958 480590956 77122422#1 77122422#2 480590954 -749288423#0 -749288422"/>
    </vehicle>
    <vehicle id="41" depart="41.00">
        <route edges="24533443#1 24533418 269001613#1 150694616#2 323709012#0 323709012#1 25876774 25876775#0 25876775#1 181337671#0 280873233 181337547 181336338 144918027#1 144918027#2 144918027#3 461562479#0 461562479#2 461562478#1 426912946#0 426912946#1 152406542 181332367#0 461571710#1"/>
    </vehicle>
    <vehicle id="42" depart="42.00">
        <route edges="156466418#2 -156466418#2 -156466418#1 -27288175#1 -27288175#0 -35099540#1 -35099540#0 35099432#0 35099432#2 4084172 114389127#1 114389127#2 114389127#3 114389127#4 377905808#0 377905808#2 377905809#2 377905809#3 377905809#4 269017600#0 269017600#1 163419805#0 163419805#1 163419805#2 163419466#0 163419466#1 163419466#3 163419466#4 163419466#7 185352101 150697171#1 319999605#1 319999605#4 319999605#5 319999605#6 319999605#7 4084169 53040717 323709010 323709011#0 323709011#2 323709012#0 323709012#1 25876774 25876775#0 25876775#1 181337671#0 280873233 181337547 181336338 396385838 181337215 188324464 102526743#0 102526743#2 144934063 144932088#0 152412638#0 152412638#1 171569487 181332523#0 181332523#1 181332523#2 181332526 426912948#0 426912948#1 426912948#2 426912948#5 426452841#0 -18314022#4 -18314022#3 -18314022#2 -18314022#1 -18314022#0 -436584061#1 -436584061#0 -125927750#6 -125927750#5 -125927750#4 -125927750#3 -125927750#2 -125927750#1 -125927750#0 -436584039#5 -436584039#4 -436584039#3 -436584039#2 -436584039#1 -436584039#0"/>
    </vehicle>
    <vehicle id="43" depart="43.00">
        <route edges="97301275#0 150554195#0 581663849 360248203#1 360248191 360248194 360248197#0 360248197#1 360248209#1 268931670 268931671 4235244 204207303#0 164095588#2 305325048#0 305325046 305325049#0 305325049#1 305325049#2 236994807 5073592#0 5073592#2 5073592#3 5073592#4 5073592#5 14103491#0 251987384#0 251987384#1 251987384#2 251987384#3 269001615#1 235391298 237023442#0 269001613#0 269001613#1 150694616#2 323709012#0 323709012#1 25876774 25876775#0 25876775#1 181337671#0 280873233 181337547 181336338 396385838 181337215 188324464 102526743#0 102526743#2 144934063 144932088#0 152412638#0 152412638#1 171569487 181332523#0 181332523#1 181332523#2 181332526 426912948#0 426912948#1 426912948#2 426912948#5 426452841#0 383597641#0 383597641#2 383597641#3 383597641#4 383597641#5 383597641#6 190053109#0 190053109#1 190053109#3 190053109#4 190053109#5 204526318#1 204526318#2 204526318#3 204526318#5 204526318#6 204526318#7 204526314#1 -204526313#6 204526313#6"/>
    </vehicle>
    <vehicle id="44" depart="44.00">
        <route edges="-22331066#0 22331103#0 22331103#1 367292568#0 -426912948#5 -426912948#2 -426912948#1 -426912948#0 -181332526 -181332523#2 -181332523#1 -181332523#0 -171569487 -152412638#1 -152412638#0 80587514 171506608#0 171506608#1 252753975#1 181335262 293281410#0 258979178#1 251066998 251066997#0 101617775#0 101617775#1 101617775#2 5182256 24909171 251065565 176570669#1 185573957#0 150663777 -319999605#7 -319999605#6 -319999605#5 -319999605#4 -319999605#1 -319999605#0 -185352101 -163419466#7 -163419466#4 -163419466#3 -163419466#1 -163419466#0 69852238 269017612 269017614 269017617#0 269017617#2 163440755#0 163440755#1 163440755#2 151788685 269017597#0 269017597#1 269017597#2 269017597#3 269017597#4 269017597#5 269017597#6 190458063 190458064#2 190458064#3 190458064#4 190458064#5 57381284 4391007#0 175344381#0 175344381#1 175344381#2 35099540#0 35099540#1 35099540#2 53040714 -129735587#2 -129735587#1 443340950#0 -175351805#1 -175351805#0 -156465707#1"/>
    </vehicle>
    <vehicle id="45" depart="45.00">
        <route edges="-24534243#0 24534243#0 24534243#1 262140928 28297618#0 28297618#1 502060953#0 502060953#1 182065983#1 53175058 315426058#1 315426061 315426063 315426062 150000852 150000376#2 189773010#0 189773010#1 149996793 9040997 251158323 251158324#1 251158322#0 548514765 228126460#0 316778911#0 287186149#1 251161865#1 781419324 404599852 404599853 251157594 548514764#2 548514763#0 189876499 160173625 360785921#0 360785921#1 23137784 25589596 27134171 14189055 5111817 26408353 114976950 74539230#0 74539230#1 225198733#0 251327592#1 77122439#0 77122439#1 480590963#0 480590963#1 480590961 480590958 480590956 77122422#1 77122422#2 480590954 749289063#1 252533204#2"/>
    </vehicle>
    <vehicle id="46" depart="46.00">
        <route edges="360248187#6 360248187#7 28143931#0 28143931#1 19354464#0 19354464#1 19354464#2 227062813#0 227062813#1 227062813#2 227062813#3 258979261 255391114#0 475679571#0 475679571#1 475679571#2 475679571#3 402016820#0 187060058#0 187060058#3 187060057#0 42760132 85270645 320185351 320185500#0 320185500#1 320185500#3 270655640 270655641 189899508 360065008 268931669 268931672#0 268931670 268931671 4235244 204207303#0 164095588#2 305325048#0 305325046 305325049#0 305325049#1 305325049#2 236994807 5073592#0 5073592#2 5073592#3 5073592#4 5073592#5 14103491#0 251987384#0 251987384#1 251987384#2 251987384#3 269001615#1 235391298 237023442#0 269001613#0 269001613#1 150694616#2 323709012#0 323709012#1 25876774 25876775#0 25876775#1 181337671#0 280873233 181337547 181336338 396385838 181337215 188324464 102526743#0 102526743#2 144934063 144932088#0 171506737#0 171506737#1"/>
    </vehicle>
    <vehicle id="47" depart="47.00">
        <route edges="-18314022#3 18314022#3 18314022#4 -426452841#0 -426912948#5 -426912948#2 -426912948#1 -426912948#0 -181332526 -181332523#2 -181332523#1 -181332523#0 -171569487 -152412638#1 -152412638#0 80587514 171506608#0 171506608#1 252753975#1 181335262 293281410#0 144916662 181336164#0 181336164#1 181336164#2 181336164#3 181336164#4 181336164#5 181336164#6 181336164#7 78489606 178235948#0 178235948#1 178235035 178226533#0 178226496 305379130#0 204207308 305325054#2 152378964 178203529#0 178203529#1 178203529#2 267411688#0 267411688#1 209319564#0 209319564#2 209319564#3 209319564#4 209319563#1 209319563#2 209319563#3 152376333#0 152376333#1"/>
    </vehicle>
    <vehicle id="49" depart="49.00">
        <route edges="77122446#2 -77122446#2 -77122446#1 -77122446#0 -30163590#4 -30163590#3 -30163590#2 -30163590#1 -30163590#0 -625333807#1 -625333807#0 -50916530#4 -50916530#3 -50916530#2 -50916530#1 -50916530#0 -870453325 -50919061#3 -50919061#2 -50919061#1 -50919061#0 -229460712#1 -229460712#0 25948331 516863395#0 516863395#1 258194205 150398308 456934817 150400306#0 150400306#1 388155256 25873469#0 25873469#1 25873469#6 25873469#7 25873469#8 25873469#9 251162032#0 226991208#0 287186149#1 251161865#1 781419324 404599852 404599853 251157594 404477284#1 43578399#0"/>
    </vehicle>
    <vehicle id="50" depart="50.00">